13
Coordinates from ORCA-job test E -13.425215925150
  C      -4.965792      1.356961      0.024225
  C      -4.998342      1.935456     -1.407702
  N      -5.666732      0.925297     -2.222960
  C      -5.561229      1.094478     -3.670667
  H      -6.673321      0.902568     -1.956661
  H      -4.468515      2.046594      0.714340
  H      -5.992356      1.199968      0.378079
  H      -3.975868      2.115554     -1.761171
  H      -5.546642      2.882972     -1.429571
  H      -5.280384      2.114527     -3.955669
  H      -6.548487      0.903629     -4.109850
  H      -4.800575      0.412896     -4.021737
  H      -4.421562      0.424525     -0.003657
13
Coordinates from ORCA-job test E -13.435733898270
  C      -4.965709      1.360793      0.033413
  C      -5.010496      1.917811     -1.395488
  N      -5.693358      0.986200     -2.249056
  C      -5.572762      1.111282     -3.679663
  H      -6.664932      0.872578     -1.957303
  H      -4.457211      2.053435      0.699850
  H      -5.973689      1.204941      0.415137
  H      -3.995836      2.093582     -1.767262
  H      -5.534225      2.882596     -1.398662
  H      -5.274394      2.119001     -3.986393
  H      -6.530867      0.877974     -4.146263
  H      -4.800122      0.415696     -4.010890
  H      -4.426205      0.419537      0.019579
13
Coordinates from ORCA-job test E -13.441618194650
  C      -4.968961      1.365434      0.031682
  C      -5.022153      1.894589     -1.393097
  N      -5.716769      1.034344     -2.268098
  C      -5.580966      1.131846     -3.672954
  H      -6.659374      0.829004     -1.952583
  H      -4.443632      2.066185      0.671767
  H      -5.963559      1.212516      0.443252
  H      -4.012996      2.067499     -1.786503
  H      -5.522711      2.879606     -1.378295
  H      -5.260092      2.129466     -3.990562
  H      -6.510593      0.860837     -4.169221
  H      -4.801128      0.428428     -3.997580
  H      -4.436873      0.415671      0.039190
13
Coordinates from ORCA-job test E -13.444548411820
  C      -4.972863      1.369195      0.033430
  C      -5.024248      1.887491     -1.389781
  N      -5.741591      1.073868     -2.280364
  C      -5.591144      1.145752     -3.676375
  H      -6.649443      0.768643     -1.939109
  H      -4.433610      2.070310      0.662066
  H      -5.962488      1.221700      0.460139
  H      -4.016545      2.057044     -1.794987
  H      -5.497773      2.891954     -1.354341
  H      -5.253079      2.133673     -4.008563
  H      -6.499872      0.844448     -4.194758
  H      -4.805157      0.439610     -3.997148
  H      -4.451993      0.411736      0.056789
13
Coordinates from ORCA-job test E -13.446336798210
  C      -4.980492      1.371979      0.030031
  C      -5.020484      1.891191     -1.391190
  N      -5.764508      1.110711     -2.285635
  C      -5.601449      1.156725     -3.676831
  H      -6.612991      0.690245     -1.917853
  H      -4.431620      2.067095      0.657913
  H      -5.971777      1.234270      0.457610
  H      -4.013782      2.054495     -1.802444
  H      -5.466470      2.910545     -1.338335
  H      -5.248251      2.134598     -4.021164
  H      -6.499795      0.840155     -4.205421
  H      -4.813992      0.446866     -3.994780
  H      -4.474196      0.406550      0.065097
13
Coordinates from ORCA-job test E -13.447298897610
  C      -4.988054      1.373216      0.024435
  C      -5.016410      1.902837     -1.394287
  N      -5.780939      1.138939     -2.285401
  C      -5.607719      1.161872     -3.675411
  H      -6.560419      0.616987     -1.898303
  H      -4.435722      2.058849      0.660227
  H      -5.984599      1.245703      0.443248
  H      -4.010261      2.060665     -1.807648
  H      -5.444123      2.929237     -1.332456
  H      -5.239496      2.130947     -4.026070
  H      -6.509903      0.853673     -4.203701
  H      -4.828400      0.440542     -3.989358
  H      -4.493761      0.401960      0.061724
13
Coordinates from ORCA-job test E -13.447799346190
  C      -4.994076      1.374080      0.019248
  C      -5.015473      1.917375     -1.395842
  N      -5.790775      1.159035     -2.283643
  C      -5.610020      1.162805     -3.674154
  H      -6.500494      0.553461     -1.885080
  H      -4.442684      2.050350      0.665982
  H      -5.996116      1.254313      0.427165
  H      -4.008936      2.072502     -1.809028
  H      -5.435220      2.945177     -1.332786
  H      -5.222027      2.122961     -4.025374
  H      -6.525796      0.884261     -4.196839
  H      -4.851609      0.419211     -3.983545
  H      -4.506581      0.399894      0.050895
13
Coordinates from ORCA-job test E -13.447995911190
  C      -4.997037      1.375454      0.017879
  C      -5.017589      1.927611     -1.394154
  N      -5.790121      1.166390     -2.283383
  C      -5.609193      1.161796     -3.675607
  H      -6.455904      0.514069     -1.881660
  H      -4.449742      2.047692      0.672183
  H      -6.001915      1.256861      0.419249
  H      -4.009613      2.084392     -1.804654
  H      -5.440119      2.953045     -1.336316
  H      -5.199933      2.113583     -4.023684
  H      -6.540463      0.920388     -4.190710
  H      -4.879517      0.392089     -3.984294
  H      -4.508660      0.402056      0.042148
13
Coordinates from ORCA-job test E -13.448124154920
  C      -4.998602      1.377808      0.019282
  C      -5.021232      1.933995     -1.390510
  N      -5.781093      1.165071     -2.284602
  C      -5.606940      1.161077     -3.679030
  H      -6.420749      0.485731     -1.883885
  H      -4.457849      2.051020      0.677834
  H      -6.004260      1.254714      0.417521
  H      -4.011280      2.096339     -1.796184
  H      -5.453010      2.955149     -1.341843
  H      -5.172506      2.102757     -4.022177
  H      -6.554079      0.962081     -4.184933
  H      -4.914386      0.361819     -3.992406
  H      -4.503820      0.407865      0.037932
13
Coordinates from ORCA-job test E -13.448254905690
  C      -5.000239      1.382182      0.022967
  C      -5.026575      1.937710     -1.385505
  N      -5.763063      1.155356     -2.286977
  C      -5.603727      1.161842     -3.683934
  H      -6.381245      0.453530     -1.890277
  H      -4.469982      2.061946      0.683130
  H      -6.005079      1.248317      0.419967
  H      -4.014225      2.111121     -1.783542
  H      -5.473804      2.952450     -1.350923
  H      -5.131875      2.087031     -4.019325
  H      -6.569229      1.021344     -4.177314
  H      -4.967672      0.323824     -4.010765
  H      -4.493092      0.418773      0.039495
13
Coordinates from ORCA-job test E -13.448379622350
  C      -5.002790      1.388590      0.028079
  C      -5.031420      1.937344     -1.381222
  N      -5.738447      1.137099     -2.289563
  C      -5.600990      1.164814     -3.688592
  H      -6.338061      0.415987     -1.898535
  H      -4.486142      2.080052      0.686828
  H      -6.005930      1.239930      0.424178
  H      -4.016881      2.126030     -1.769511
  H      -5.496441      2.944754     -1.363259
  H      -5.084687      2.067770     -4.014942
  H      -6.583217      1.091368     -4.167046
  H      -5.034802      0.288052     -4.039224
  H      -4.479998      0.433636      0.049805
13
Coordinates from ORCA-job test E -13.448498107580
  C      -5.007089      1.396728      0.033651
  C      -5.032844      1.932300     -1.379358
  N      -5.708817      1.110818     -2.291594
  C      -5.600134      1.169788     -3.691589
  H      -6.291946      0.373439     -1.906177
  H      -4.506203      2.103206      0.688770
  H      -6.009230      1.233045      0.426307
  H      -4.016329      2.137581     -1.755913
  H      -5.514459      2.932564     -1.379186
  H      -5.041220      2.048615     -4.009628
  H      -6.595785      1.162957     -4.152092
  H      -5.106872      0.263773     -4.076141
  H      -4.468880      0.450612      0.069948
13
Coordinates from ORCA-job test E -13.448587254680
  C      -5.012505      1.404499      0.037604
  C      -5.028649      1.923800     -1.381227
  N      -5.683062      1.083789     -2.292068
  C      -5.602756      1.175216     -3.691423
  H      -6.253716      0.335630     -1.909436
  H      -4.524376      2.123730      0.688707
  H      -6.016233      1.233051      0.422773
  H      -4.010292      2.139437     -1.747229
  H      -5.519051      2.919985     -1.395851
  H      -5.019704      2.039896     -4.003124
  H      -6.606824      1.212396     -4.135473
  H      -5.156738      0.260010     -4.110760
  H      -4.465902      0.463986      0.094504
13
Coordinates from ORCA-job test E -13.448635190400
  C      -5.017848      1.410471      0.039484
  C      -5.021634      1.915756     -1.384791
  N      -5.667037      1.064115     -2.291333
  C      -5.608005      1.179440     -3.689601
  H      -6.223134      0.305380     -1.908644
  H      -4.536709      2.136533      0.688364
  H      -6.025647      1.240615      0.414658
  H      -4.001003      2.132491     -1.743421
  H      -5.512126      2.911507     -1.410652
  H      -5.019775      2.042665     -3.995799
  H      -6.617281      1.236349     -4.121049
  H      -5.178489      0.268860     -4.135161
  H      -4.471118      0.471244      0.114942
13
Coordinates from ORCA-job test E -13.448658868840
  C      -5.022830      1.414878      0.040767
  C      -5.015136      1.909984     -1.387269
  N      -5.656187      1.051882     -2.290910
  C      -5.613407      1.182407     -3.688620
  H      -6.194549      0.280779     -1.907754
  H      -4.545195      2.143627      0.689227
  H      -6.035255      1.251042      0.406187
  H      -3.991343      2.122656     -1.739761
  H      -5.501999      2.906799     -1.423760
  H      -5.028534      2.049541     -3.990935
  H      -6.627263      1.248233     -4.108189
  H      -5.188544      0.278768     -4.151306
  H      -4.479564      0.474829      0.129320
13
Coordinates from ORCA-job test E -13.448679318510
  C      -5.029391      1.419777      0.042544
  C      -5.007079      1.903517     -1.389151
  N      -5.642611      1.039719     -2.291294
  C      -5.620165      1.185962     -3.688355
  H      -6.158765      0.253591     -1.908182
  H      -4.554322      2.150183      0.690934
  H      -6.047507      1.265693      0.396420
  H      -3.978093      2.108027     -1.732881
  H      -5.487317      2.902382     -1.440699
  H      -5.045232      2.061188     -3.987471
  H      -6.640373      1.256095     -4.091553
  H      -5.196570      0.291660     -4.168222
  H      -4.492380      0.477632      0.144908
13
Coordinates from ORCA-job test E -13.448698925510
  C      -5.037973      1.425356      0.044770
  C      -4.997369      1.896116     -1.390365
  N      -5.624959      1.026984     -2.292828
  C      -5.628441      1.190680     -3.688542
  H      -6.114830      0.223647     -1.910916
  H      -4.564155      2.156784      0.692799
  H      -6.062349      1.284565      0.386144
  H      -3.961011      2.088559     -1.721616
  H      -5.467446      2.898014     -1.462043
  H      -5.070092      2.077707     -3.985199
  H      -6.656834      1.259339     -4.070782
  H      -5.203937      0.307933     -4.186785
  H      -4.510411      0.479742      0.162361
13
Coordinates from ORCA-job test E -13.448716404500
  C      -5.047504      1.430827      0.046899
  C      -4.987276      1.888978     -1.390900
  N      -5.606168      1.015731     -2.295254
  C      -5.637425      1.196218     -3.688777
  H      -6.069452      0.195652     -1.915701
  H      -4.572082      2.162029      0.693949
  H      -6.077542      1.305929      0.377478
  H      -3.942432      2.066574     -1.707271
  H      -5.443888      2.894678     -1.484542
  H      -5.101406      2.097603     -3.983722
  H      -6.674161      1.254414     -4.049875
  H      -5.207816      0.326610     -4.204328
  H      -4.532654      0.480182      0.179041
13
Coordinates from ORCA-job test E -13.448728422220
  C      -5.054897      1.434602      0.048244
  C      -4.979845      1.884383     -1.390953
  N      -5.593082      1.009345     -2.297393
  C      -5.644599      1.200998     -3.688766
  H      -6.037275      0.177637     -1.920261
  H      -4.574420      2.163846      0.693826
  H      -6.088365      1.324473      0.373481
  H      -3.928138      2.048465     -1.694937
  H      -5.423506      2.893623     -1.500953
  H      -5.130554      2.115318     -3.982712
  H      -6.686757      1.241251     -4.036618
  H      -5.205116      0.343209     -4.215808
  H      -4.553252      0.478275      0.189849
13
Coordinates from ORCA-job test E -13.448734033660
  C      -5.057924      1.435938      0.048662
  C      -4.976927      1.883158     -1.390905
  N      -5.589318      1.008278     -2.298169
  C      -5.647937      1.203545     -3.688555
  H      -6.026291      0.172188     -1.922263
  H      -4.571449      2.162480      0.692904
  H      -6.092247      1.335111      0.374268
  H      -3.922034      2.039615     -1.689214
  H      -5.413210      2.894493     -1.507036
  H      -5.147471      2.125274     -3.982149
  H      -6.691362      1.227239     -4.034050
  H      -5.198165      0.352877     -4.219380
  H      -4.565471      0.475229      0.192884
13
Coordinates from ORCA-job test E -13.448735611810
  C      -5.058081      1.435953      0.048562
  C      -4.976807      1.883562     -1.390989
  N      -5.590336      1.009062     -2.297964
  C      -5.648441      1.204166     -3.688257
  H      -6.026691      0.172526     -1.922346
  H      -4.568047      2.160680      0.692204
  H      -6.092197      1.338701      0.375947
  H      -3.921484      2.038265     -1.688612
  H      -5.411504      2.895409     -1.506901
  H      -5.151883      2.127896     -3.981751
  H      -6.691267      1.220263     -4.035882
  H      -5.193607      0.355743     -4.219079
  H      -4.569460      0.473199      0.192066
13
Coordinates from ORCA-job test E -13.448735939960
  C      -5.057845      1.435901      0.048446
  C      -4.977002      1.883871     -1.391127
  N      -5.591117      1.009305     -2.297703
  C      -5.648329      1.204187     -3.688036
  H      -6.027438      0.172710     -1.922197
  H      -4.566440      2.159765      0.692015
  H      -6.091902      1.340032      0.376469
  H      -3.921853      2.038720     -1.689015
  H      -5.412008      2.895611     -1.506243
  H      -5.152195      2.128166     -3.981347
  H      -6.690802      1.218515     -4.036768
  H      -5.192283      0.356257     -4.218821
  H      -4.570592      0.472384      0.191324
