! GOAT xtb 
%pal nprocs 32 end
* xyz 1 1
6       -4.965792206      1.356960822      0.024225221
6       -4.998342460      1.935455881     -1.407701561
7       -5.666732045      0.925297313     -2.222959760
6       -5.561229083      1.094478470     -3.670666913
1       -6.673321101      0.902567972     -1.956661243
1       -4.468514788      2.046594313      0.714340297
1       -5.992356365      1.199968111      0.378078534
1       -3.975867683      2.115553785     -1.761171398
1       -5.546642392      2.882971868     -1.429571368
1       -5.280384273      2.114526818     -3.955669069
1       -6.548487494      0.903628734     -4.109850358
1       -4.800574926      0.412895798     -4.021737154
1       -4.421561622      0.424525496     -0.003657259
*

